Version 4
SHEET 1 5720 1884
WIRE 1120 32 1072 32
WIRE 1248 48 1184 48
WIRE 1456 48 1248 48
WIRE 368 64 192 64
WIRE 432 64 368 64
WIRE 512 64 432 64
WIRE 544 64 512 64
WIRE 736 64 624 64
WIRE 848 64 736 64
WIRE 976 64 912 64
WIRE 1008 64 976 64
WIRE 1120 64 1008 64
WIRE 736 160 736 128
WIRE 1072 160 1072 32
WIRE 192 176 192 144
WIRE -32 288 -48 288
WIRE 176 288 -32 288
WIRE 1120 384 1072 384
WIRE 1248 400 1184 400
WIRE 1456 400 1248 400
WIRE 432 416 432 64
WIRE 544 416 432 416
WIRE 736 416 624 416
WIRE 848 416 736 416
WIRE 976 416 912 416
WIRE 1120 416 976 416
WIRE 128 432 128 320
WIRE -144 496 -160 496
WIRE 736 512 736 480
WIRE 1072 512 1072 384
WIRE -240 592 -352 592
WIRE -160 592 -160 496
WIRE -144 592 -160 592
WIRE -64 608 -64 496
WIRE -64 608 -80 608
WIRE 80 608 -64 608
WIRE -240 624 -304 624
WIRE -144 624 -160 624
WIRE -304 656 -304 624
WIRE -160 672 -160 624
WIRE 128 688 128 432
WIRE 128 688 80 688
WIRE -304 720 -304 656
FLAG -528 -80 0
FLAG -528 -160 VCC
FLAG -704 -64 0
FLAG -704 -144 P15V
FLAG -128 288 IRAMP
FLAG 512 64 SW
FLAG 368 64 QRST
FLAG 192 176 0
FLAG -32 352 0
FLAG -112 576 VCC
FLAG -112 640 0
FLAG -304 800 0
FLAG 128 432 ISET
FLAG -352 592 COMP
FLAG -160 752 0
FLAG 80 768 0
FLAG -304 656 PWR
FLAG 736 160 0
FLAG 1184 64 0
FLAG 1152 16 VCC
FLAG 1248 -32 VCC
FLAG 1152 80 0
FLAG 1072 240 0
FLAG 976 144 0
FLAG 1008 64 TRI
FLAG 736 512 0
FLAG 1184 416 0
FLAG 1152 368 VCC
FLAG 1248 320 VCC
FLAG 1152 432 0
FLAG 1072 592 0
FLAG 976 496 0
SYMBOL voltage -528 -176 R0
WINDOW 123 0 0 Left 0
WINDOW 39 0 0 Left 0
WINDOW 3 48 40 Left 2
SYMATTR Value 5
SYMATTR InstName V2
SYMBOL voltage -704 -160 R0
WINDOW 123 0 0 Left 0
WINDOW 39 0 0 Left 0
WINDOW 3 48 40 Left 2
SYMATTR Value 15
SYMATTR InstName V4
SYMBOL res -144 304 R270
WINDOW 0 32 56 VTop 2
WINDOW 3 85 57 VBottom 2
SYMATTR InstName R10
SYMATTR Value 10
SYMBOL res 640 48 R90
WINDOW 0 0 56 VBottom 2
WINDOW 3 32 56 VTop 2
SYMATTR InstName R16
SYMATTR Value 10k
SYMBOL voltage 192 48 R0
WINDOW 123 0 0 Left 0
WINDOW 39 0 0 Left 0
WINDOW 3 -271 -43 Left 2
WINDOW 0 -23 -10 Left 2
SYMATTR Value PULSE(0 3.3 0 100n 100n 0.05ms 0.1ms 40)
SYMATTR InstName VIN1
SYMBOL cap -48 288 R0
SYMATTR InstName C1
SYMATTR Value 1p
SYMBOL OpAmps\\LT1006 -112 544 R0
WINDOW 3 30 120 Left 2
SYMATTR InstName U2
SYMBOL voltage -304 704 R0
WINDOW 123 0 0 Left 0
WINDOW 39 0 0 Left 0
WINDOW 3 48 40 Left 2
SYMATTR Value 1
SYMATTR InstName V1
SYMBOL res -256 640 R270
WINDOW 0 -37 54 VTop 2
WINDOW 3 -40 53 VBottom 2
SYMATTR InstName R6
SYMATTR Value 10k
SYMBOL res -256 608 R270
WINDOW 0 41 54 VTop 2
WINDOW 3 97 58 VBottom 2
SYMATTR InstName R9
SYMATTR Value 10k
SYMBOL res -160 512 R270
WINDOW 0 41 54 VTop 2
WINDOW 3 97 58 VBottom 2
SYMATTR InstName R11
SYMATTR Value 10k
SYMBOL res -176 656 R0
SYMATTR InstName R12
SYMATTR Value 10k
SYMBOL res 64 592 R0
SYMATTR InstName R13
SYMATTR Value 10k
SYMBOL res 64 672 R0
SYMATTR InstName R15
SYMATTR Value 1k
SYMBOL cap 720 64 R0
SYMATTR InstName C3
SYMATTR Value 10n
SYMBOL res 1232 -48 R0
SYMATTR InstName R1
SYMATTR Value 3.3k
SYMBOL xcomp_x11 1152 -16 R0
SYMATTR InstName U1
SYMATTR Value LM311
SYMBOL voltage 1072 144 R0
WINDOW 123 0 0 Left 0
WINDOW 39 0 0 Left 0
WINDOW 3 48 40 Left 2
SYMATTR Value 0
SYMATTR InstName V3
SYMBOL cap 912 48 R90
WINDOW 0 0 32 VBottom 2
WINDOW 3 32 32 VTop 2
SYMATTR InstName C2
SYMATTR Value 10n
SYMBOL res 992 160 R180
WINDOW 0 36 76 Left 2
WINDOW 3 36 40 Left 2
SYMATTR InstName R2
SYMATTR Value 100k
SYMBOL res 640 400 R90
WINDOW 0 0 56 VBottom 2
WINDOW 3 32 56 VTop 2
SYMATTR InstName 20k
SYMATTR Value 20k
SYMBOL cap 720 416 R0
SYMATTR InstName C4
SYMATTR Value 1n
SYMBOL res 1232 304 R0
SYMATTR InstName R4
SYMATTR Value 3.3k
SYMBOL xcomp_x11 1152 336 R0
SYMATTR InstName U3
SYMATTR Value LM311
SYMBOL voltage 1072 496 R0
WINDOW 123 0 0 Left 0
WINDOW 39 0 0 Left 0
WINDOW 3 48 40 Left 2
SYMATTR Value 0
SYMATTR InstName V5
SYMBOL cap 912 400 R90
WINDOW 0 0 32 VBottom 2
WINDOW 3 32 32 VTop 2
SYMATTR InstName C5
SYMATTR Value 10n
SYMBOL res 992 512 R180
WINDOW 0 36 76 Left 2
WINDOW 3 36 40 Left 2
SYMATTR InstName R5
SYMATTR Value 100k
TEXT -168 -224 Left 2 !.tran 4ms
TEXT -208 -312 Left 2 !.include 74hc.lib
TEXT -184 -368 Left 2 !.include standard.bjt
TEXT -176 -272 Left 2 !.include LM311.301
TEXT 64 -432 Left 2 !.include my.lib
TEXT -536 128 Left 2 !.ic V(TRI)=-2
