Version 4
SHEET 1 5720 1884
WIRE 400 -96 400 -160
WIRE 976 -96 976 -160
WIRE 1392 -96 1216 -96
WIRE 496 -16 400 -16
WIRE 1392 -16 1216 -16
WIRE 336 32 192 32
WIRE 1392 32 1392 -16
WIRE 976 48 976 -16
WIRE 400 112 400 80
WIRE 400 112 320 112
WIRE 544 112 400 112
WIRE 688 464 640 464
WIRE 720 464 688 464
WIRE 352 496 176 496
WIRE 448 496 352 496
WIRE 864 528 864 512
WIRE 864 544 864 528
WIRE 640 592 640 528
WIRE 688 592 640 592
WIRE 720 592 688 592
WIRE -48 720 -64 720
WIRE 160 720 -48 720
WIRE 288 736 224 736
WIRE 544 736 544 608
WIRE 544 736 288 736
WIRE 160 752 112 752
WIRE 112 864 112 752
WIRE -160 928 -176 928
WIRE 688 976 688 960
WIRE 800 976 688 976
WIRE 880 976 800 976
WIRE 944 976 880 976
WIRE -256 1024 -368 1024
WIRE -176 1024 -176 928
WIRE -160 1024 -176 1024
WIRE -80 1040 -80 928
WIRE -80 1040 -96 1040
WIRE 64 1040 -80 1040
WIRE -256 1056 -320 1056
WIRE -160 1056 -176 1056
WIRE -320 1088 -320 1056
WIRE -176 1104 -176 1056
WIRE 800 1104 800 976
WIRE 112 1120 112 864
WIRE 112 1120 64 1120
WIRE -320 1152 -320 1088
WIRE 656 1152 624 1152
FLAG -528 -80 0
FLAG -528 -160 VCC
FLAG 400 192 0
FLAG -704 -64 0
FLAG -704 -144 P15V
FLAG 400 -240 P15V
FLAG 544 112 IRAMP
FLAG -144 720 IRAMP
FLAG 688 464 SW
FLAG 224 752 0
FLAG 192 704 VCC
FLAG 288 656 VCC
FLAG 688 592 CSW
FLAG 976 -240 P15V
FLAG 1392 32 0
FLAG 976 112 0
FLAG 944 528 FSW
FLAG 192 32 FSW
FLAG 864 416 VCC
FLAG 864 640 0
FLAG 192 768 0
FLAG 352 496 QRST
FLAG 176 576 0
FLAG 448 464 VCC
FLAG 544 384 VCC
FLAG -48 784 0
FLAG 624 1152 CSW
FLAG 800 1200 0
FLAG 688 880 VCC
FLAG 880 976 COMP
FLAG 688 1040 0
FLAG -128 1008 VCC
FLAG -128 1072 0
FLAG -320 1232 0
FLAG 112 864 ISET
FLAG -368 1024 COMP
FLAG -176 1184 0
FLAG 64 1200 0
FLAG -320 1088 ICTL
SYMBOL voltage -528 -176 R0
WINDOW 123 0 0 Left 0
WINDOW 39 0 0 Left 0
WINDOW 3 48 40 Left 2
SYMATTR Value 5
SYMATTR InstName V2
SYMBOL ind2 384 -112 R0
SYMATTR InstName L1
SYMATTR Value 1m
SYMATTR Type ind
SYMBOL npn 336 -16 R0
SYMATTR InstName Q1
SYMATTR Value FJL4315
SYMBOL res 384 96 R0
SYMATTR InstName R1
SYMATTR Value 0.05
SYMBOL ind2 1200 0 M180
WINDOW 0 36 80 Left 2
WINDOW 3 36 40 Left 2
SYMATTR InstName L3
SYMATTR Value 1m
SYMATTR Type ind
SYMBOL voltage -704 -160 R0
WINDOW 123 0 0 Left 0
WINDOW 39 0 0 Left 0
WINDOW 3 48 40 Left 2
SYMATTR Value 15
SYMATTR InstName V4
SYMBOL res 416 -144 R180
WINDOW 0 36 76 Left 2
WINDOW 3 36 40 Left 2
SYMATTR InstName R7
SYMATTR Value 0.01R
SYMBOL res -160 736 R270
WINDOW 0 32 56 VTop 2
WINDOW 3 85 57 VBottom 2
SYMATTR InstName R10
SYMATTR Value 10
SYMBOL res 272 640 R0
SYMATTR InstName R14
SYMATTR Value 3.3k
SYMBOL ind2 992 0 R180
WINDOW 0 36 80 Left 2
WINDOW 3 36 40 Left 2
SYMATTR InstName L2
SYMATTR Value 1m
SYMATTR Type ind
SYMBOL res 992 -144 R180
WINDOW 0 36 76 Left 2
WINDOW 3 36 40 Left 2
SYMATTR InstName R17
SYMATTR Value 0.01R
SYMBOL res 1376 -112 R0
SYMATTR InstName R5
SYMATTR Value 50R
SYMBOL xcomp_x11 192 672 R0
SYMATTR InstName U5
SYMATTR Value LM311
SYMBOL res 816 448 R90
WINDOW 0 0 56 VBottom 2
WINDOW 3 32 56 VTop 2
SYMATTR InstName R16
SYMATTR Value 1k
SYMBOL npn 800 416 R0
SYMATTR InstName Q5
SYMATTR Value 2N3904
SYMBOL diode 992 112 R180
WINDOW 0 24 64 Left 2
WINDOW 3 24 0 Left 2
SYMATTR InstName D1
SYMBOL npn 800 544 R0
SYMATTR InstName Q2
SYMATTR Value 2N3904
SYMBOL res 816 576 R90
WINDOW 0 0 56 VBottom 2
WINDOW 3 32 56 VTop 2
SYMATTR InstName R4
SYMATTR Value 1k
SYMBOL res 960 512 R90
WINDOW 0 0 56 VBottom 2
WINDOW 3 32 56 VTop 2
SYMATTR InstName R8
SYMATTR Value 25R
SYMBOL voltage 176 480 R0
WINDOW 123 0 0 Left 0
WINDOW 39 0 0 Left 0
WINDOW 3 -271 -43 Left 2
WINDOW 0 -23 -10 Left 2
SYMATTR Value PULSE(0 3.3 0 100n 100n 0.05ms 0.1ms 14)
SYMATTR InstName VIN1
SYMBOL 74hc74 544 384 R0
SYMATTR InstName U1
SYMBOL cap -64 720 R0
SYMATTR InstName C1
SYMATTR Value 1p
SYMBOL npn 736 1104 R0
SYMATTR InstName Q3
SYMATTR Value 2N3904
SYMBOL res 752 1136 R90
WINDOW 0 0 56 VBottom 2
WINDOW 3 32 56 VTop 2
SYMATTR InstName R2
SYMATTR Value 1k
SYMBOL cap 672 976 R0
SYMATTR InstName C2
SYMATTR Value 100n
SYMBOL res 672 864 R0
SYMATTR InstName R3
SYMATTR Value 3k
SYMBOL OpAmps\\LT1006 -128 976 R0
WINDOW 3 30 120 Left 2
SYMATTR InstName U2
SYMBOL voltage -320 1136 R0
WINDOW 123 0 0 Left 0
WINDOW 39 0 0 Left 0
WINDOW 3 48 40 Left 2
SYMATTR Value 1
SYMATTR InstName V1
SYMBOL res -272 1072 R270
WINDOW 0 -37 54 VTop 2
WINDOW 3 -40 53 VBottom 2
SYMATTR InstName R6
SYMATTR Value 10k
SYMBOL res -272 1040 R270
WINDOW 0 41 54 VTop 2
WINDOW 3 97 58 VBottom 2
SYMATTR InstName R9
SYMATTR Value 10k
SYMBOL res -176 944 R270
WINDOW 0 41 54 VTop 2
WINDOW 3 97 58 VBottom 2
SYMATTR InstName R11
SYMATTR Value 10k
SYMBOL res -192 1088 R0
SYMATTR InstName R12
SYMATTR Value 10k
SYMBOL res 48 1024 R0
SYMATTR InstName R13
SYMATTR Value 10k
SYMBOL res 48 1104 R0
SYMATTR InstName R15
SYMATTR Value 1k
TEXT -168 -224 Left 2 !.tran 1.5ms
TEXT -208 -312 Left 2 !.include 74hc.lib
TEXT 1024 -456 Left 2 !K L1 L2 L3 0.99.5
TEXT -184 -368 Left 2 !.include standard.bjt
TEXT -176 -272 Left 2 !.include LM311.301
TEXT 1208 240 Left 2 ;use mic1557 to generate square wave.\n- use as current-mode  for boost/ flyback/forward. , or push pull as is.\n- for push-pull divide the square wave with another flip flop. to alternate\n- for buck, need over-the-top current sense\n- can also use another clock-divider - to get a 50% max duty. and avoid compensation\n- could also drive AB slew, with op-amp  .\n- current-mode push-pull is nice because doesn't need compensation\n- for running without compensation, use clock divider. and just do an async rst. in second half\n--\ncurrent-mode push-pull is nice, because avoids compensation circuit, is balanced, reduce  flux-walk. dont need sense gain amp.\ncompensation must reduce the set voltage,  rather than add to current-sense. for  continuous conduction\nnote how comparator is inverted, which gives open-drain OR. possibility\n- \nrather than sense gain amp. may be better to use a resistor divider. to divide down the comp adjusted iset.
TEXT 1168 856 Left 2 ;This shows Iramp, and Iset and effect of COMP reducing to force\ncomp range 0-1V.  eg. for Iramp 0-100mV.\ndivider after op-amp gives op-amp  headroom. and allows us to use 1.25V refernce. and avoid Iramp amplifier.\nthere's an issue if  ICTL/SET  goes too high. then comp doesnt turn off before the end of the cycle\nso pulses get stretched.\nit may be ok. the point of comp is to avoid sub-harmonic oscillation. not to turn off before the cycle \nthe fact that it is not on the cycle, if the error amplifier is indicating to high-power may be  ok.\na separate omparator to force off at eg. 200mV regardless of the error amplifier could be good. like lm3481\n--\nadd a second open-drain comparaotr. for 200mV. as current shutoff, to cover err amplifier wrong, or output short-circuit.
