Version 4
SHEET 1 5720 1884
WIRE 400 -96 400 -160
WIRE 768 -96 768 -160
WIRE 1280 -96 1216 -96
WIRE 1392 -96 1344 -96
WIRE 1504 -96 1392 -96
WIRE 1680 -96 1584 -96
WIRE 1744 -96 1680 -96
WIRE 1680 -80 1680 -96
WIRE 400 -16 192 -16
WIRE 976 -16 768 -16
WIRE 1680 -16 1216 -16
WIRE 1744 -16 1680 -16
WIRE 336 32 192 32
WIRE 976 32 832 32
WIRE 1744 32 1744 -16
WIRE 1296 64 1216 64
WIRE 1392 64 1392 -96
WIRE 1392 64 1360 64
WIRE 400 112 400 80
WIRE 400 112 320 112
WIRE 544 112 400 112
WIRE 768 112 768 80
WIRE 768 112 544 112
WIRE 848 112 768 112
WIRE 528 368 304 368
WIRE 304 464 304 368
WIRE 864 464 496 464
WIRE 304 496 224 496
WIRE 528 528 528 368
WIRE 528 528 496 528
WIRE 736 528 528 528
WIRE 976 544 976 480
WIRE 976 544 864 544
WIRE 1120 544 1120 528
WIRE 1120 560 1120 544
WIRE 864 608 864 544
WIRE 544 816 496 816
WIRE 576 816 544 816
WIRE 208 848 32 848
WIRE 224 848 224 496
WIRE 224 848 208 848
WIRE 304 848 224 848
WIRE 736 848 736 528
WIRE 864 848 736 848
WIRE 976 928 976 864
WIRE 976 928 864 928
WIRE 1120 928 1120 912
WIRE 496 944 496 880
WIRE 544 944 496 944
WIRE 576 944 544 944
WIRE 1120 944 1120 928
WIRE 864 992 864 928
WIRE -192 1072 -208 1072
WIRE 16 1072 -192 1072
WIRE 144 1088 80 1088
WIRE 400 1088 400 960
WIRE 400 1088 144 1088
WIRE 16 1104 -32 1104
WIRE -32 1216 -32 1104
WIRE -80 1264 -240 1264
WIRE -240 1328 -240 1264
WIRE -32 1344 -32 1216
WIRE -32 1344 -80 1344
WIRE -240 1392 -240 1328
FLAG -528 -80 0
FLAG -528 -160 VCC
FLAG 400 192 0
FLAG -704 -64 0
FLAG -704 -144 P15V
FLAG 400 -240 P15V
FLAG 544 112 IRAMP
FLAG -288 1072 IRAMP
FLAG 544 816 SW
FLAG 80 1104 0
FLAG 48 1056 VCC
FLAG 144 1008 VCC
FLAG 544 944 CSW
FLAG 1744 32 0
FLAG 1200 544 FSW1
FLAG 192 32 FSW1
FLAG 1120 432 VCC
FLAG 1120 656 0
FLAG 48 1120 0
FLAG 208 848 QRST
FLAG 32 928 0
FLAG 304 816 VCC
FLAG 400 736 VCC
FLAG -192 1136 0
FLAG -240 1472 0
FLAG -32 1216 ISET
FLAG -80 1424 0
FLAG -240 1328 PWR
FLAG 400 384 VCC
FLAG 400 608 VCC
FLAG 864 496 SW
FLAG 1200 928 FSW2
FLAG 1120 816 VCC
FLAG 1120 1040 0
FLAG 864 880 SW
FLAG 768 -240 P15V
FLAG 976 32 FSW2
FLAG 192 -16 DRAIN1
FLAG 976 -16 DRAIN2
SYMBOL voltage -528 -176 R0
WINDOW 123 0 0 Left 0
WINDOW 39 0 0 Left 0
WINDOW 3 48 40 Left 2
SYMATTR Value 5
SYMATTR InstName V2
SYMBOL ind2 384 -112 R0
SYMATTR InstName L1
SYMATTR Value 1m
SYMATTR Type ind
SYMBOL npn 336 -16 R0
SYMATTR InstName Q1
SYMATTR Value FJL4315
SYMBOL res 384 96 R0
SYMATTR InstName R1
SYMATTR Value 0.05
SYMBOL ind2 1200 0 M180
WINDOW 0 36 80 Left 2
WINDOW 3 36 40 Left 2
SYMATTR InstName L3
SYMATTR Value 1m
SYMATTR Type ind
SYMBOL voltage -704 -160 R0
WINDOW 123 0 0 Left 0
WINDOW 39 0 0 Left 0
WINDOW 3 48 40 Left 2
SYMATTR Value 15
SYMATTR InstName V4
SYMBOL res 416 -144 R180
WINDOW 0 36 76 Left 2
WINDOW 3 36 40 Left 2
SYMATTR InstName R7
SYMATTR Value 0.01R
SYMBOL res -304 1088 R270
WINDOW 0 32 56 VTop 2
WINDOW 3 85 57 VBottom 2
SYMATTR InstName R10
SYMATTR Value 10
SYMBOL res 128 992 R0
SYMATTR InstName R14
SYMATTR Value 3.3k
SYMBOL res 1728 -112 R0
SYMATTR InstName R5
SYMATTR Value 50R
SYMBOL xcomp_x11 48 1024 R0
SYMATTR InstName U5
SYMATTR Value LM311
SYMBOL res 1072 464 R90
WINDOW 0 0 56 VBottom 2
WINDOW 3 32 56 VTop 2
SYMATTR InstName R16
SYMATTR Value 1k
SYMBOL npn 1056 432 R0
SYMATTR InstName Q5
SYMATTR Value 2N3904
SYMBOL npn 1056 560 R0
SYMATTR InstName Q2
SYMATTR Value 2N3904
SYMBOL res 1072 592 R90
WINDOW 0 0 56 VBottom 2
WINDOW 3 32 56 VTop 2
SYMATTR InstName R4
SYMATTR Value 1k
SYMBOL res 1216 528 R90
WINDOW 0 0 56 VBottom 2
WINDOW 3 32 56 VTop 2
SYMATTR InstName R8
SYMATTR Value 25R
SYMBOL voltage 32 832 R0
WINDOW 123 0 0 Left 0
WINDOW 39 0 0 Left 0
WINDOW 3 -271 -43 Left 2
WINDOW 0 -23 -10 Left 2
SYMATTR Value PULSE(0 3.3 0 100n 100n 0.05ms 0.1ms 14)
SYMATTR InstName VIN1
SYMBOL 74hc74 400 736 R0
SYMATTR InstName U1
SYMBOL cap -208 1072 R0
SYMATTR InstName C1
SYMATTR Value 1p
SYMBOL voltage -240 1376 R0
WINDOW 123 0 0 Left 0
WINDOW 39 0 0 Left 0
WINDOW 3 48 40 Left 2
SYMATTR Value 1
SYMATTR InstName V1
SYMBOL res -96 1248 R0
SYMATTR InstName R13
SYMATTR Value 10k
SYMBOL res -96 1328 R0
SYMATTR InstName R15
SYMATTR Value 1k
SYMBOL 74hc74 400 384 R0
SYMATTR InstName U3
SYMBOL 74hc08 912 416 R0
SYMATTR InstName U2
SYMBOL 74hc04 912 544 R0
SYMATTR InstName U4
SYMBOL res 1072 848 R90
WINDOW 0 0 56 VBottom 2
WINDOW 3 32 56 VTop 2
SYMATTR InstName R2
SYMATTR Value 1k
SYMBOL npn 1056 816 R0
SYMATTR InstName Q3
SYMATTR Value 2N3904
SYMBOL npn 1056 944 R0
SYMATTR InstName Q4
SYMATTR Value 2N3904
SYMBOL res 1072 976 R90
WINDOW 0 0 56 VBottom 2
WINDOW 3 32 56 VTop 2
SYMATTR InstName R3
SYMATTR Value 1k
SYMBOL res 1216 912 R90
WINDOW 0 0 56 VBottom 2
WINDOW 3 32 56 VTop 2
SYMATTR InstName R6
SYMATTR Value 25R
SYMBOL 74hc08 912 800 R0
SYMATTR InstName U6
SYMBOL 74hc04 912 928 R0
SYMATTR InstName U7
SYMBOL ind2 752 0 M180
WINDOW 0 36 80 Left 2
WINDOW 3 36 40 Left 2
SYMATTR InstName L2
SYMATTR Value 1m
SYMATTR Type ind
SYMBOL npn 832 -16 M0
SYMATTR InstName Q6
SYMATTR Value FJL4315
SYMBOL res 752 -144 M180
WINDOW 0 36 76 Left 2
WINDOW 3 36 40 Left 2
SYMATTR InstName R11
SYMATTR Value 0.01R
SYMBOL ind2 1200 80 M180
WINDOW 0 36 80 Left 2
WINDOW 3 36 40 Left 2
SYMATTR InstName L4
SYMATTR Value 1m
SYMATTR Type ind
SYMBOL ind2 1488 -112 M90
WINDOW 0 4 56 VBottom 2
WINDOW 3 32 56 VTop 2
SYMATTR InstName L5
SYMATTR Value 400µ
SYMATTR Type ind
SYMBOL schottky 1280 -80 R270
WINDOW 0 32 32 VTop 2
WINDOW 3 0 32 VBottom 2
SYMATTR InstName D1
SYMATTR Value SS3P5
SYMATTR Description Diode
SYMATTR Type diode
SYMBOL schottky 1296 80 R270
WINDOW 0 32 32 VTop 2
WINDOW 3 0 32 VBottom 2
SYMATTR InstName D2
SYMATTR Value SS3P5
SYMATTR Description Diode
SYMATTR Type diode
SYMBOL cap 1664 -80 R0
SYMATTR InstName C2
SYMATTR Value 100µ
TEXT -168 -224 Left 2 !.tran 1.5ms
TEXT -208 -312 Left 2 !.include 74hc.lib
TEXT 1024 -456 Left 2 !K L1 L2 L3 L4 0.99.5
TEXT -184 -368 Left 2 !.include standard.bjt
TEXT -176 -272 Left 2 !.include LM311.301
TEXT 2128 -248 Left 2 ;use mic1557 to generate square wave.\n- use as current-mode  for boost/ flyback/forward. , or push pull as is.\n- for push-pull divide the square wave with another flip flop. to alternate\n- for buck, need over-the-top current sense\n- can also use another clock-divider - to get a 50% max duty. and avoid compensation\n- could also drive AB slew, with op-amp  .\n- current-mode push-pull is nice because doesn't need compensation\n- for running without compensation, use clock divider. and just do an async rst. in second half\n--\ncurrent-mode push-pull is nice, because avoids compensation circuit, is balanced, reduce  flux-walk. dont need sense gain amp.\ncompensation must reduce the set voltage,  rather than add to current-sense. for  continuous conduction\nnote how comparator is inverted, which gives open-drain OR. possibility\n- \nrather than sense gain amp. may be better to use a resistor divider. to divide down the comp adjusted iset.
TEXT 2136 256 Left 2 ;This shows Iramp, and Iset and effect of COMP reducing to force\ncomp range 0-1V.  eg. for Iramp 0-100mV.\ndivider after op-amp gives op-amp  headroom. and allows us to use 1.25V refernce. and avoid Iramp amplifier.\nthere's an issue if  ICTL/SET  goes too high. then comp doesnt turn off before the end of the cycle\nso pulses get stretched.\nit may be ok. the point of comp is to avoid sub-harmonic oscillation. not to turn off before the cycle \nthe fact that it is not on the cycle, if the error amplifier is indicating to high-power may be  ok.\na separate omparator to force off at eg. 200mV regardless of the error amplifier could be good. like lm3481\n--\nadd a second open-drain comparaotr. for 200mV. as current shutoff, to cover err amplifier wrong, or output short-circuit.
TEXT 864 1152 Left 2 ;should just use a fet driver. mcp\n mcp14a0154
TEXT 1256 -512 Left 2 ;Needs a rectifier, and output inductor for ramp
