Version 4
SHEET 1 5720 1884
WIRE 400 -96 400 -160
WIRE 976 -96 976 -160
WIRE 1600 -80 1424 -80
WIRE 496 -16 400 -16
WIRE 1600 0 1424 0
WIRE 336 32 192 32
WIRE 976 48 976 -16
WIRE 1600 48 1600 0
WIRE 400 112 400 80
WIRE 400 112 320 112
WIRE 544 112 400 112
WIRE 688 464 640 464
WIRE 720 464 688 464
WIRE 352 496 176 496
WIRE 448 496 352 496
WIRE 864 528 864 512
WIRE 864 544 864 528
WIRE 640 592 640 528
WIRE 688 592 640 592
WIRE 720 592 688 592
WIRE -48 720 -64 720
WIRE 160 720 -48 720
WIRE 288 736 224 736
WIRE 544 736 544 608
WIRE 544 736 288 736
WIRE 160 752 112 752
WIRE 112 784 112 752
WIRE 1552 800 1552 784
WIRE 1664 800 1552 800
WIRE 1744 800 1664 800
WIRE 1808 800 1744 800
WIRE 112 848 112 784
WIRE 1664 928 1664 800
WIRE 1520 976 1488 976
FLAG -528 -80 0
FLAG -528 -160 VCC
FLAG 400 192 0
FLAG -704 -64 0
FLAG -704 -144 P15V
FLAG 400 -240 P15V
FLAG 544 112 IRAMP
FLAG -144 720 IRAMP
FLAG 688 464 SW
FLAG 224 752 0
FLAG 192 704 VCC
FLAG 112 928 0
FLAG 288 656 VCC
FLAG 688 592 CSW
FLAG 112 784 ISET
FLAG 976 -240 P15V
FLAG 1600 48 0
FLAG 976 112 0
FLAG 944 528 FSW
FLAG 192 32 FSW
FLAG 864 416 VCC
FLAG 864 640 0
FLAG 192 768 0
FLAG 352 496 QRST
FLAG 176 576 0
FLAG 448 464 VCC
FLAG 544 384 VCC
FLAG -48 784 0
FLAG 1488 976 CSW
FLAG 1664 1024 0
FLAG 1552 704 VCC
FLAG 1744 800 COMP
FLAG 1552 864 0
SYMBOL voltage -528 -176 R0
WINDOW 123 0 0 Left 0
WINDOW 39 0 0 Left 0
WINDOW 3 48 40 Left 2
SYMATTR Value 5
SYMATTR InstName V2
SYMBOL ind2 384 -112 R0
SYMATTR InstName L1
SYMATTR Value 1m
SYMATTR Type ind
SYMBOL npn 336 -16 R0
SYMATTR InstName Q1
SYMATTR Value FJL4315
SYMBOL res 384 96 R0
SYMATTR InstName R1
SYMATTR Value 0.1R
SYMBOL ind2 1408 16 M180
WINDOW 0 36 80 Left 2
WINDOW 3 36 40 Left 2
SYMATTR InstName L3
SYMATTR Value 1m
SYMATTR Type ind
SYMBOL voltage -704 -160 R0
WINDOW 123 0 0 Left 0
WINDOW 39 0 0 Left 0
WINDOW 3 48 40 Left 2
SYMATTR Value 15
SYMATTR InstName V4
SYMBOL res 416 -144 R180
WINDOW 0 36 76 Left 2
WINDOW 3 36 40 Left 2
SYMATTR InstName R7
SYMATTR Value 0.01R
SYMBOL res -160 736 R270
WINDOW 0 32 56 VTop 2
WINDOW 3 85 57 VBottom 2
SYMATTR InstName R10
SYMATTR Value 10
SYMBOL res 272 640 R0
SYMATTR InstName R14
SYMATTR Value 3.3k
SYMBOL voltage 112 832 R0
WINDOW 123 0 0 Left 0
WINDOW 39 0 0 Left 0
WINDOW 3 48 40 Left 2
SYMATTR Value 0.2
SYMATTR InstName V5
SYMBOL ind2 992 0 R180
WINDOW 0 36 80 Left 2
WINDOW 3 36 40 Left 2
SYMATTR InstName L2
SYMATTR Value 1m
SYMATTR Type ind
SYMBOL res 992 -144 R180
WINDOW 0 36 76 Left 2
WINDOW 3 36 40 Left 2
SYMATTR InstName R17
SYMATTR Value 0.01R
SYMBOL res 1584 -96 R0
SYMATTR InstName R5
SYMATTR Value 50R
SYMBOL xcomp_x11 192 672 R0
SYMATTR InstName U5
SYMATTR Value LM311
SYMBOL res 816 448 R90
WINDOW 0 0 56 VBottom 2
WINDOW 3 32 56 VTop 2
SYMATTR InstName R16
SYMATTR Value 1k
SYMBOL npn 800 416 R0
SYMATTR InstName Q5
SYMATTR Value 2N3904
SYMBOL diode 992 112 R180
WINDOW 0 24 64 Left 2
WINDOW 3 24 0 Left 2
SYMATTR InstName D1
SYMBOL npn 800 544 R0
SYMATTR InstName Q2
SYMATTR Value 2N3904
SYMBOL res 816 576 R90
WINDOW 0 0 56 VBottom 2
WINDOW 3 32 56 VTop 2
SYMATTR InstName R4
SYMATTR Value 1k
SYMBOL res 960 512 R90
WINDOW 0 0 56 VBottom 2
WINDOW 3 32 56 VTop 2
SYMATTR InstName R8
SYMATTR Value 25R
SYMBOL voltage 176 480 R0
WINDOW 123 0 0 Left 0
WINDOW 39 0 0 Left 0
WINDOW 3 -271 -43 Left 2
WINDOW 0 -23 -10 Left 2
SYMATTR Value PULSE(0 3.3 0 100n 100n 0.2ms 0.4ms 14)
SYMATTR InstName VIN1
SYMBOL 74hc74 544 384 R0
SYMATTR InstName U1
SYMBOL cap -64 720 R0
SYMATTR InstName C1
SYMATTR Value 1p
SYMBOL npn 1600 928 R0
SYMATTR InstName Q3
SYMATTR Value 2N3904
SYMBOL res 1616 960 R90
WINDOW 0 0 56 VBottom 2
WINDOW 3 32 56 VTop 2
SYMATTR InstName R2
SYMATTR Value 1k
SYMBOL cap 1536 800 R0
SYMATTR InstName C2
SYMATTR Value 100n
SYMBOL res 1536 688 R0
SYMATTR InstName R3
SYMATTR Value 10k
TEXT -168 -224 Left 2 !.tran 2ms
TEXT -208 -312 Left 2 !.include 74hc.lib
TEXT 1024 -456 Left 2 !K L1 L2 L3 0.99.5
TEXT -184 -368 Left 2 !.include standard.bjt
TEXT -176 -272 Left 2 !.include LM311.301
TEXT 672 864 Left 2 ;USE THE   clock input rising edge to trigger the start.\nand the ramp to reset. note async reset is active low.\nthis avoid any spurious signals.\nnot sure about blank time.\nadd 1n cap after the 10R.
TEXT 552 256 Left 2 ;THIS WORKS. WELL AS IS.
TEXT 1208 240 Left 2 ;use mic1557 to generate square wave.\n- use as current-mode  for boost/ flyback/forward. , or push pull as is.\n- for push-pull divide the square wave with another flip flop. to alternate\n- for buck, need over-the-top current sense\n- can also use another clock-divider - to get a 50% max duty. and avoid compensation\n- could also drive AB slew, with op-amp  .\n- current-mode push-pull is nice because doesn't need compensation\n- for running without compensation, use clock divider. and just do an async rst. in second half\n--\ncurrent-mode push-pull is nice, because avoids compensation circuit, is balanced, reduce  flux-walk. dont need sense gain amp.\ncompensation must reduce the set voltage,  rather than add to current-sense. for  continuous conduction\nnote how comparator is inverted, which gives open-drain OR. possibility\n- \nrather than sense gain amp. may be better to use a resistor divider. to divide down the comp adjusted iset.
