Version 4
SHEET 1 5720 1884
WIRE 704 32 656 32
WIRE 736 32 704 32
WIRE 368 64 192 64
WIRE 464 64 368 64
WIRE 880 96 880 80
WIRE 976 96 880 96
WIRE 1120 96 1056 96
WIRE 1296 96 1200 96
WIRE 1424 96 1296 96
WIRE 880 112 880 96
WIRE 656 160 656 96
WIRE 704 160 656 160
WIRE 736 160 704 160
WIRE 1296 208 1296 160
WIRE -32 288 -48 288
WIRE 176 288 -32 288
WIRE 304 304 240 304
WIRE 560 304 560 176
WIRE 560 304 304 304
WIRE 176 320 128 320
WIRE 1552 336 1232 336
WIRE 1552 368 1552 336
WIRE 1120 400 1120 96
WIRE 1152 400 1120 400
WIRE 1232 400 1232 336
WIRE 1264 400 1232 400
WIRE 1360 416 1328 416
WIRE 1488 416 1440 416
WIRE 128 432 128 320
WIRE 1200 432 1200 96
WIRE 1264 432 1200 432
WIRE 1488 448 1488 416
WIRE 1504 448 1488 448
WIRE 1680 464 1552 464
WIRE -144 496 -160 496
WIRE 704 544 704 528
WIRE 816 544 704 544
WIRE 896 544 816 544
WIRE 960 544 896 544
WIRE -240 592 -352 592
WIRE -160 592 -160 496
WIRE -144 592 -160 592
WIRE -64 608 -64 496
WIRE -64 608 -80 608
WIRE 80 608 -64 608
WIRE -240 624 -304 624
WIRE -144 624 -160 624
WIRE -304 656 -304 624
WIRE -160 672 -160 624
WIRE 816 672 816 544
WIRE 128 688 128 432
WIRE 128 688 80 688
WIRE -304 720 -304 656
WIRE 672 720 640 720
FLAG -528 -80 0
FLAG -528 -160 VCC
FLAG -704 -64 0
FLAG -704 -144 P15V
FLAG -128 288 IRAMP
FLAG 704 32 SW
FLAG 240 320 0
FLAG 208 272 VCC
FLAG 304 224 VCC
FLAG 704 160 CSW
FLAG 880 -16 VCC
FLAG 880 208 0
FLAG 208 336 0
FLAG 368 64 QRST
FLAG 192 144 0
FLAG 464 32 VCC
FLAG 560 -48 VCC
FLAG -32 352 0
FLAG 640 720 CSW
FLAG 816 768 0
FLAG 704 448 VCC
FLAG 896 544 COMP
FLAG 704 608 0
FLAG -112 576 VCC
FLAG -112 640 0
FLAG -304 800 0
FLAG 128 432 ISET
FLAG -352 592 COMP
FLAG -160 752 0
FLAG 80 768 0
FLAG -304 656 PWR
FLAG 1296 208 0
FLAG 1552 544 0
FLAG 1296 384 0
FLAG 1296 448 VCC
FLAG 1680 464 IRAMP
FLAG 1424 176 0
SYMBOL voltage -528 -176 R0
WINDOW 123 0 0 Left 0
WINDOW 39 0 0 Left 0
WINDOW 3 48 40 Left 2
SYMATTR Value 5
SYMATTR InstName V2
SYMBOL ind2 960 112 R270
WINDOW 0 32 56 VTop 2
WINDOW 3 4 56 VBottom 2
SYMATTR InstName L1
SYMATTR Value 200µ
SYMATTR Type ind
SYMBOL res 1104 112 R270
WINDOW 0 32 56 VTop 2
WINDOW 3 0 56 VBottom 2
SYMATTR InstName R1
SYMATTR Value 0.1
SYMBOL voltage -704 -160 R0
WINDOW 123 0 0 Left 0
WINDOW 39 0 0 Left 0
WINDOW 3 48 40 Left 2
SYMATTR Value 15
SYMATTR InstName V4
SYMBOL res -144 304 R270
WINDOW 0 32 56 VTop 2
WINDOW 3 85 57 VBottom 2
SYMATTR InstName R10
SYMATTR Value 10
SYMBOL res 288 208 R0
SYMATTR InstName R14
SYMATTR Value 3.3k
SYMBOL xcomp_x11 208 240 R0
SYMATTR InstName U5
SYMATTR Value LM311
SYMBOL res 832 16 R90
WINDOW 0 0 56 VBottom 2
WINDOW 3 32 56 VTop 2
SYMATTR InstName R16
SYMATTR Value 1k
SYMBOL npn 816 -16 R0
SYMATTR InstName Q5
SYMATTR Value 2N3904
SYMBOL npn 816 112 R0
SYMATTR InstName Q2
SYMATTR Value 2N3904
SYMBOL res 832 144 R90
WINDOW 0 0 56 VBottom 2
WINDOW 3 32 56 VTop 2
SYMATTR InstName R4
SYMATTR Value 1k
SYMBOL voltage 192 48 R0
WINDOW 123 0 0 Left 0
WINDOW 39 0 0 Left 0
WINDOW 3 -271 -43 Left 2
WINDOW 0 -23 -10 Left 2
SYMATTR Value PULSE(0 3.3 0 100n 100n 0.05ms 0.1ms 40)
SYMATTR InstName VIN1
SYMBOL 74hc74 560 -48 R0
SYMATTR InstName U1
SYMBOL cap -48 288 R0
SYMATTR InstName C1
SYMATTR Value 1p
SYMBOL npn 752 672 R0
SYMATTR InstName Q3
SYMATTR Value 2N3904
SYMBOL res 768 704 R90
WINDOW 0 0 56 VBottom 2
WINDOW 3 32 56 VTop 2
SYMATTR InstName R2
SYMATTR Value 1k
SYMBOL cap 688 544 R0
SYMATTR InstName C2
SYMATTR Value 100n
SYMBOL res 688 432 R0
SYMATTR InstName R3
SYMATTR Value 3k
SYMBOL OpAmps\\LT1006 -112 544 R0
WINDOW 3 30 120 Left 2
SYMATTR InstName U2
SYMBOL voltage -304 704 R0
WINDOW 123 0 0 Left 0
WINDOW 39 0 0 Left 0
WINDOW 3 48 40 Left 2
SYMATTR Value 1
SYMATTR InstName V1
SYMBOL res -256 640 R270
WINDOW 0 -37 54 VTop 2
WINDOW 3 -40 53 VBottom 2
SYMATTR InstName R6
SYMATTR Value 10k
SYMBOL res -256 608 R270
WINDOW 0 41 54 VTop 2
WINDOW 3 97 58 VBottom 2
SYMATTR InstName R9
SYMATTR Value 10k
SYMBOL res -160 512 R270
WINDOW 0 41 54 VTop 2
WINDOW 3 97 58 VBottom 2
SYMATTR InstName R11
SYMATTR Value 10k
SYMBOL res -176 656 R0
SYMATTR InstName R12
SYMATTR Value 10k
SYMBOL res 64 592 R0
SYMATTR InstName R13
SYMATTR Value 10k
SYMBOL res 64 672 R0
SYMATTR InstName R15
SYMATTR Value 1k
SYMBOL cap 1280 96 R0
SYMATTR InstName C3
SYMATTR Value 100µ
SYMBOL OpAmps\\LT1006 1296 480 M180
WINDOW 3 -51 -46 Left 2
SYMATTR InstName U3
SYMBOL res 1568 560 R180
WINDOW 0 36 76 Left 2
WINDOW 3 36 40 Left 2
SYMATTR InstName R8
SYMATTR Value 1k
SYMBOL res 1136 416 R270
WINDOW 0 32 56 VTop 2
WINDOW 3 0 56 VBottom 2
SYMATTR InstName R18
SYMATTR Value 1k
SYMBOL res 1408 80 R0
SYMATTR InstName R5
SYMATTR Value 50R
SYMBOL res 1344 432 R270
WINDOW 0 32 56 VTop 2
WINDOW 3 0 56 VBottom 2
SYMATTR InstName R7
SYMATTR Value 100R
SYMBOL nmos 1504 368 R0
SYMATTR InstName M1
SYMATTR Value DI_BSS138
TEXT -168 -224 Left 2 !.tran 4ms
TEXT -208 -312 Left 2 !.include 74hc.lib
TEXT -184 -368 Left 2 !.include standard.bjt
TEXT -176 -272 Left 2 !.include LM311.301
TEXT 1736 -152 Left 2 ;there's an issue that it doesn't start without initial conditions. SW is lo. so not current through\ninductor.\n------\nactually iramp is high, even if no current. because of Vos of op-anp. which forces CLR low, \nand async CLR overrides the qrst square wave.\nbut can probably fix by pulling CLR high, if SW has been held lo for some time\n---\ncan use fet drivers for level-shift and to drive bjt.\nadd 200mV. comparator for hard-off.
TEXT 1744 344 Left 2 ;We cannot just pul the output of the comparator high.\nbecause there is contention.\nso we have to address the op-amp
TEXT 1672 160 Left 2 ;so the op-amp is trying all it can to balance the current \nno. current flows out Q4 collector (3V)  through R18 and out Q2. (11mV)
TEXT 1744 264 Left 2 ;current has to be coming out Q4 collector. to have 3V drop across  R18
TEXT 1816 512 Left 2 ;OK. nmos works.\nideal nmos diode seems a lot better than 2n7002 though.\nok. bss138 seems better than 2n7002
TEXT 64 -432 Left 2 !.include my.lib
