Version 4
SHEET 1 5720 1740
WIRE 704 352 656 352
WIRE 800 352 784 352
WIRE 976 448 944 448
WIRE 1312 448 1168 448
WIRE 1856 448 1792 448
WIRE 1904 448 1856 448
WIRE 2112 448 1904 448
WIRE 656 464 656 352
WIRE 800 480 800 352
WIRE 800 480 768 480
WIRE 896 480 800 480
WIRE 976 480 896 480
WIRE 1200 512 1168 512
WIRE 656 528 656 496
WIRE 800 528 656 528
WIRE 768 544 768 480
WIRE 768 544 656 544
WIRE 656 576 656 544
WIRE 2016 576 1968 576
WIRE 2048 576 2016 576
WIRE 368 592 304 592
WIRE 800 592 800 528
WIRE 800 592 768 592
WIRE 1728 592 1536 592
WIRE 496 608 432 608
WIRE 608 608 496 608
WIRE 656 608 608 608
WIRE 944 608 944 448
WIRE 1200 608 1200 512
WIRE 1200 608 944 608
WIRE 2016 608 2016 576
WIRE 2016 608 1792 608
WIRE 192 624 112 624
WIRE 208 624 192 624
WIRE 368 624 208 624
WIRE 1728 624 1696 624
WIRE 1696 672 1696 624
WIRE 1904 672 1904 624
WIRE 1904 672 1696 672
WIRE 304 688 304 592
WIRE 2112 688 2112 624
WIRE 208 752 208 624
WIRE 1904 752 1824 752
WIRE 2112 752 1904 752
WIRE 1904 800 1904 752
FLAG -704 256 0
FLAG -704 176 VCC
FLAG 208 848 0
FLAG 112 688 0
FLAG 432 624 0
FLAG 400 576 VCC
FLAG 496 528 VCC
FLAG 304 768 0
FLAG 32 624 VCC
FLAG 192 624 CRAMP
FLAG 1072 368 VCC
FLAG 1072 592 VCC
FLAG 608 608 RST
FLAG 592 352 0
FLAG 400 640 0
FLAG 896 480 QRST
FLAG 64 800 QRST
FLAG 1856 448 VCC
FLAG 1760 576 VCC
FLAG 1760 640 0
FLAG 1536 672 0
FLAG 1904 800 0
SYMBOL voltage -704 160 R0
WINDOW 123 0 0 Left 0
WINDOW 39 0 0 Left 0
WINDOW 3 48 40 Left 2
SYMATTR Value 5
SYMATTR InstName V2
SYMBOL res 128 608 R90
WINDOW 0 0 56 VBottom 2
WINDOW 3 32 56 VTop 2
SYMATTR InstName R8
SYMATTR Value 10k
SYMBOL cap 96 624 R0
SYMATTR InstName C4
SYMATTR Value 10n
SYMBOL npn 144 752 R0
SYMATTR InstName Q4
SYMBOL res 160 784 R90
WINDOW 0 0 56 VBottom 2
WINDOW 3 32 56 VTop 2
SYMATTR InstName R11
SYMATTR Value 100R
SYMBOL res 480 512 R0
SYMATTR InstName R12
SYMATTR Value 3.3k
SYMBOL voltage 304 672 R0
WINDOW 123 0 0 Left 0
WINDOW 39 0 0 Left 0
WINDOW 3 48 40 Left 2
SYMATTR Value 1V
SYMATTR InstName V6
SYMBOL res 800 336 R90
WINDOW 0 0 56 VBottom 2
WINDOW 3 32 56 VTop 2
SYMATTR InstName R4
SYMATTR Value 10k
SYMBOL 74hc74 1072 368 R0
SYMATTR InstName U2
SYMBOL xcomp_x11 400 544 R0
SYMATTR InstName U11
SYMATTR Value LM311
SYMBOL 74hc02 704 416 R0
SYMATTR InstName U4
SYMBOL 74hc02 704 528 R0
SYMATTR InstName U10
SYMBOL cap 656 336 R90
WINDOW 0 0 32 VBottom 2
WINDOW 3 32 32 VTop 2
SYMATTR InstName C3
SYMATTR Value 20p
SYMBOL pnp 1968 624 R180
SYMATTR InstName Q1
SYMBOL pnp 2048 624 M180
SYMATTR InstName Q2
SYMBOL res 1888 432 R0
SYMATTR InstName R1
SYMATTR Value 620R
SYMBOL res 2096 432 R0
SYMATTR InstName R2
SYMATTR Value 620R
SYMBOL res 1888 656 R0
SYMATTR InstName R3
SYMATTR Value 3.3k
SYMBOL cap 2096 688 R0
SYMATTR InstName C1
SYMATTR Value 1n
SYMBOL OpAmps\\LT1006 1760 544 R0
SYMATTR InstName U1
SYMBOL voltage 1536 576 R0
WINDOW 123 0 0 Left 0
WINDOW 39 0 0 Left 0
WINDOW 3 48 40 Left 2
SYMATTR Value 1
SYMATTR InstName V1
TEXT -168 -224 Left 2 !.tran 0.5ms
TEXT -208 -312 Left 2 !.include 74hc.lib
TEXT -184 -368 Left 2 !.include standard.bjt
TEXT -176 -272 Left 2 !.include LM311.301
TEXT 624 616 Left 2 ;S
TEXT 624 440 Left 2 ;R
TEXT 768 440 Left 2 ;Q
TEXT 760 616 Left 2 ;~Q
TEXT -512 -224 Left 2 !.ic V(QRST)=0
TEXT -504 -176 Left 2 !.ic V(RST)=5
TEXT 1464 920 Left 2 ;https://community.element14.com/technologies/555-timers/b/blog/posts/555-voltage-controlled-oscillator
TEXT 1608 864 Left 2 ;has start issues
